UNIVERSAL FILE = 'out.14'
GEOMETRY FILE FOR TELEMAC = 'out_st.slf'
BOUNDARY CONDITIONS FILE = 'out_st.cli'
ELIMINATION OF BACKWARD DEPENDENCIES = NO
MESH GENERATOR = ADCIRC

