UNIVERSAL FILE = 'out.grd'
GEOMETRY FILE FOR TELEMAC = 'out_stb.slf'
BOUNDARY CONDITIONS FILE = 'out_stb.cli'
ELIMINATION OF BACKWARD DEPENDENCIES = NO
NODES RENUMBERING = NO
MESH GENERATOR = ADCIRC

