1

                    Execution started at 20151202.111044         



                    ---------------------------------------
                                     SWAN
                    SIMULATION OF WAVES IN NEAR SHORE AREAS
                             VERSION NUMBER 41.01               
                    ---------------------------------------


    
 $*************************HEADING************************
    
 $
    
 PROJ 'out_rcm_closed' 's01'
    
 $
    
 $********************MODEL INPUT*************************
    
 $
    
 SET LEVEL 10.0 NAUT
    
 $
    
 MODE STATIONARY TWODIMENSIONAL
    
 $
    
 CGRID UNSTRUCTURED CIRCLE 36 0.0521 1. 31
 Resolution in sigma-space: df/f =  0.1000
    
 READgrid UNSTRUCtured ADCirc


 The unstructured grid contains solely triangles generated by SMS/ADCIRC

 Number of vertices          =    2337

 Number of cells             =    4329
    Number of internal cells =    3996
    Number of boundary cells =     333

 Number of faces             =    6666
    Number of internal faces =    6321
    Number of boundary faces =     345


 The minimum gridsize =     7.14573
 The maximum gridsize =   312.63275
    
 $
    
 $ 22 m/s winds
    
 WIND 22.0 90
    
 $
    
 GEN3
    
 BREA
    
 FRIC
    
 TRIAD
    
 DIFFRACTION
    
 $
    
 NUM STOPC 0.005 0.02 0.005 98 STAT 50 0.01
    
 $
    
 $*************************************************************
    
 $
    
 BLOCK 'COMPGRID' NOHEAD 'out_rcm_closed.mat' LAY 3 XP YP DEP HS DIR RTP
    
 $
    
 $BLOCK 'COMPGRID' NOHEAD 'out_rcm_closed.mat' LAY 3 XP YP DEP HS RTP TM01 TM02 DIR DSPR FSPR
    
 $
    
 $ in python do this
    
 $ import scipy.io
    
 $ mat = scipy.io.loadmat('out_rcm_closed.mat')
    
 $
    
 TEST 1,0
    
 COMPUTE

----------------------------------------------------------------
                  COMPUTATIONAL PART OF SWAN
----------------------------------------------------------------

 Gridresolution       : MSC              32 MDC             36
                      : MTC               1
                      : NSTATC            0 ITERMX          50
 Propagation flags    : ITFRE             1 IREFR            1
 Source term flags    : IBOT              1 ISURF            1
                      : IWCAP             1 IWIND            3
                      : ITRIAD            1 IQUAD            2
                      : IVEG              0 ITURBV           0
                      : IMUD              0
 Spectral bin         : df/f     0.1000E+00 DDIR    0.1000E+02
 Physical constants   : GRAV     0.9810E+01 RHO     0.1025E+04
 Wind input           : WSPEED   0.2200E+02 DIR     0.1800E+03
 Tail parameters      : E(f)     0.4000E+01 E(k)    0.2500E+01
                      : A(f)     0.5000E+01 A(k)    0.3000E+01
 Accuracy parameters  : DREL     0.2000E-01 NPNTS   0.9800E+02
                      : DHABS    0.5000E-02 CURVAT  0.5000E-02
                      : GRWMX    0.1000E+00
 Drying/flooding      : LEVEL    0.1000E+02 DEPMIN  0.5000E-01
 The nautical  convention for wind and wave directions is used
 Scheme for geographic propagation is BSBT  
 Scheme spectral space: CSS      0.5000E+00 CDD     0.5000E+00
 Current is off
 Quadruplets          : IQUAD             2
                      : LAMBDA   0.2500E+00 CNL4    0.3000E+08
                      : CSH1     0.5500E+01 CSH2    0.8330E+00
                      : CSH3    -0.1250E+01
 Maximum Ursell nr for Snl4 :    0.1000E+02
 Triads               : ITRIAD            1 TRFAC   0.6500E+00
                      : CUTFR    0.2500E+01 URCRI   0.2000E+00
 Minimum Ursell nr for Snl3 :    0.1000E-01
 JONSWAP (`73)        : GAMMA    0.3800E-01
 Vegetation is off
 Turbulence is off
 Fluid mud is off
 W-cap Komen (`84)    : EMPCOF   0.2360E-04 APM     0.3020E-02
                      : DELTA    0.1000E+01
 Battjes&Janssen (`78): ALPHA    0.1000E+01 GAMMA   0.7300E+00
 Set-up is off
 Diffraction          : SMPAR    0.0000E+00 SMNUM            0
 Janssen (`89,`90)    : ALPHA    0.1000E-01 KAPPA   0.4100E+00
 Janssen (`89,`90)    : RHOA     0.1280E+01 RHOW    0.1025E+04

 1st and 2nd gen. wind: CF10     0.1880E+03 CF20    0.5900E+00
                      : CF30     0.1200E+00 CF40    0.2500E+03
                      : CF50     0.2300E-02 CF60   -0.2230E+00
                      : CF70     0.0000E+00 CF80   -0.5600E+00
                      : RHOAW    0.1249E-02 EDMLPM  0.3600E-02
                      : CDRAG    0.1230E-02 UMIN    0.1000E+01
                      : LIM_PM   0.1300E+00

 Number of active points =   2337 (fillings-degree: 100.00 %)


 Settings of 2nd generation mode as first guess are used:
 ITER     1    GRWMX   0.1000E+23    ALFA     0.0000E+00
 IWIND    2    IWCAP    0            IQUAD     0
 ISURF    1    IBOT     1            ITRIAD    1
 IVEG     0    ITURBV   0    IMUD     0

 iteration    1; sweep   1
 iteration    1; sweep   2
 iteration    1; sweep   3
       not possible to compute accuracy, first iteration



 User-defined settings of 3rd generation mode is re-used:
 ITER     2    GRWMX   0.1000E+00    ALFA     0.1000E-01
 IWIND    3    IWCAP    1            IQUAD     2
 ISURF    1    IBOT     1            ITRIAD    1
 IVEG     0    ITURBV   0    IMUD     0

 iteration    2; sweep   1
 iteration    2; sweep   2
 iteration    2; sweep   3
 accuracy OK in   6.93 % of wet grid points ( 98.00 % required)

 iteration    3; sweep   1
 iteration    3; sweep   2
 iteration    3; sweep   3
 accuracy OK in   6.93 % of wet grid points ( 98.00 % required)

 iteration    4; sweep   1
 iteration    4; sweep   2
 iteration    4; sweep   3
 accuracy OK in  25.25 % of wet grid points ( 98.00 % required)

 iteration    5; sweep   1
 iteration    5; sweep   2
 iteration    5; sweep   3
 accuracy OK in  27.51 % of wet grid points ( 98.00 % required)

 iteration    6; sweep   1
 iteration    6; sweep   2
 iteration    6; sweep   3
 accuracy OK in  29.05 % of wet grid points ( 98.00 % required)

 iteration    7; sweep   1
 iteration    7; sweep   2
 iteration    7; sweep   3
 accuracy OK in  30.17 % of wet grid points ( 98.00 % required)

 iteration    8; sweep   1
 iteration    8; sweep   2
 iteration    8; sweep   3
 accuracy OK in  31.75 % of wet grid points ( 98.00 % required)

 iteration    9; sweep   1
 iteration    9; sweep   2
 iteration    9; sweep   3
 accuracy OK in  32.73 % of wet grid points ( 98.00 % required)

 iteration   10; sweep   1
 iteration   10; sweep   2
 iteration   10; sweep   3
 accuracy OK in  32.99 % of wet grid points ( 98.00 % required)

 iteration   11; sweep   1
 iteration   11; sweep   2
 iteration   11; sweep   3
 accuracy OK in  33.93 % of wet grid points ( 98.00 % required)

 iteration   12; sweep   1
 iteration   12; sweep   2
 iteration   12; sweep   3
 accuracy OK in  35.64 % of wet grid points ( 98.00 % required)

 iteration   13; sweep   1
 iteration   13; sweep   2
 iteration   13; sweep   3
 accuracy OK in  37.83 % of wet grid points ( 98.00 % required)

 iteration   14; sweep   1
 iteration   14; sweep   2
 iteration   14; sweep   3
 accuracy OK in  40.52 % of wet grid points ( 98.00 % required)

 iteration   15; sweep   1
 iteration   15; sweep   2
 iteration   15; sweep   3
 accuracy OK in  43.43 % of wet grid points ( 98.00 % required)

 iteration   16; sweep   1
 iteration   16; sweep   2
 iteration   16; sweep   3
 accuracy OK in  46.68 % of wet grid points ( 98.00 % required)

 iteration   17; sweep   1
 iteration   17; sweep   2
 iteration   17; sweep   3
 accuracy OK in  50.58 % of wet grid points ( 98.00 % required)

 iteration   18; sweep   1
 iteration   18; sweep   2
 iteration   18; sweep   3
 accuracy OK in  54.00 % of wet grid points ( 98.00 % required)

 iteration   19; sweep   1
 iteration   19; sweep   2
 iteration   19; sweep   3
 accuracy OK in  57.21 % of wet grid points ( 98.00 % required)

 iteration   20; sweep   1
 iteration   20; sweep   2
 iteration   20; sweep   3
 accuracy OK in  61.32 % of wet grid points ( 98.00 % required)

 iteration   21; sweep   1
 iteration   21; sweep   2
 iteration   21; sweep   3
 accuracy OK in  64.44 % of wet grid points ( 98.00 % required)

 iteration   22; sweep   1
 iteration   22; sweep   2
 iteration   22; sweep   3
 accuracy OK in  67.91 % of wet grid points ( 98.00 % required)

 iteration   23; sweep   1
 iteration   23; sweep   2
 iteration   23; sweep   3
 accuracy OK in  71.07 % of wet grid points ( 98.00 % required)

 iteration   24; sweep   1
 iteration   24; sweep   2
 iteration   24; sweep   3
 accuracy OK in  74.80 % of wet grid points ( 98.00 % required)

 iteration   25; sweep   1
 iteration   25; sweep   2
 iteration   25; sweep   3
 accuracy OK in  77.15 % of wet grid points ( 98.00 % required)

 iteration   26; sweep   1
 iteration   26; sweep   2
 iteration   26; sweep   3
 accuracy OK in  78.90 % of wet grid points ( 98.00 % required)

 iteration   27; sweep   1
 iteration   27; sweep   2
 iteration   27; sweep   3
 accuracy OK in  80.96 % of wet grid points ( 98.00 % required)

 iteration   28; sweep   1
 iteration   28; sweep   2
 iteration   28; sweep   3
 accuracy OK in  82.71 % of wet grid points ( 98.00 % required)

 iteration   29; sweep   1
 iteration   29; sweep   2
 iteration   29; sweep   3
 accuracy OK in  84.47 % of wet grid points ( 98.00 % required)

 iteration   30; sweep   1
 iteration   30; sweep   2
 iteration   30; sweep   3
 accuracy OK in  85.88 % of wet grid points ( 98.00 % required)

 iteration   31; sweep   1
 iteration   31; sweep   2
 iteration   31; sweep   3
 accuracy OK in  87.68 % of wet grid points ( 98.00 % required)

 iteration   32; sweep   1
 iteration   32; sweep   2
 iteration   32; sweep   3
 accuracy OK in  89.82 % of wet grid points ( 98.00 % required)

 iteration   33; sweep   1
 iteration   33; sweep   2
 iteration   33; sweep   3
 accuracy OK in  91.31 % of wet grid points ( 98.00 % required)

 iteration   34; sweep   1
 iteration   34; sweep   2
 iteration   34; sweep   3
 accuracy OK in  92.73 % of wet grid points ( 98.00 % required)

 iteration   35; sweep   1
 iteration   35; sweep   2
 iteration   35; sweep   3
 accuracy OK in  94.09 % of wet grid points ( 98.00 % required)

 iteration   36; sweep   1
 iteration   36; sweep   2
 iteration   36; sweep   3
 accuracy OK in  95.16 % of wet grid points ( 98.00 % required)

 iteration   37; sweep   1
 iteration   37; sweep   2
 iteration   37; sweep   3
 accuracy OK in  96.06 % of wet grid points ( 98.00 % required)

 iteration   38; sweep   1
 iteration   38; sweep   2
 iteration   38; sweep   3
 accuracy OK in  97.26 % of wet grid points ( 98.00 % required)

 iteration   39; sweep   1
 iteration   39; sweep   2
 iteration   39; sweep   3
 accuracy OK in  98.59 % of wet grid points ( 98.00 % required)

    
 STOP
